7

Si        0.5792632639    0.0004951617    0.0033604535
H         1.1950667073    0.0022664039    1.3635862774
H         1.0583620052    1.2190591615   -0.6956436964
H         1.0554582136   -1.2210975618   -0.6922899436
N        -1.1569520213    0.0009810986   -0.0662448922
H        -1.6611636577    0.8307750885    0.2226966158
H        -1.6601301236   -0.8325143800    0.2137188402
