7

Si        0.5814403703   -0.0040963295    0.0238743036
H         1.2305872814   -0.5473325982    1.2468692205
H         0.9786550320    1.4168457100   -0.1426977619
H         1.1167852329   -0.7873220574   -1.1255365472
N        -1.1424669445   -0.0032053984    0.1431403184
H        -1.6791093167    0.8266405169   -0.0623111395
H        -1.7088871835   -0.8392676290    0.1538519804
