7

Si       -0.5759781642    0.0404964073   -0.0033721644
H        -1.0109319596   -1.1702043800   -0.7436649765
H        -1.1192656318    1.2633539687   -0.6460684350
H        -1.1702104627   -0.0291121853    1.3642101699
N         1.1623093137    0.0572255049   -0.0744778103
H         1.6794129724    0.7165638069    0.4955698993
H         1.6335454814   -0.8397872845   -0.0751050072
