7

Si       -0.5858758197   -0.0190373002    0.0028790385
H        -1.1364940191   -1.4039413410    0.0026628821
H        -1.1309809506    0.6436897319   -1.2123576321
H        -1.0765514488    0.6947114015    1.2085660690
N         1.1387491025    0.0549599294    0.0726586395
H         1.6167998763    0.3921752027    0.8950748902
H         1.7528730510   -0.4355616979   -0.5613546920

