22

  C         0.4064680583    0.0169443679    0.0000000000
  Si       -1.4652980387    0.0560895306    0.0000000000
  C        -2.1439877554   -0.7909509854    1.5351462386
  H        -3.2387420199   -0.7723057934    1.5648709643
  H        -1.8352445246   -1.8410864125    1.5679994526
  H        -1.7713177056   -0.3055506305    2.4414304652
  C        -2.1439877554   -0.7909509854   -1.5351462386
  H        -3.2387420199   -0.7723057934   -1.5648709643
  H        -1.7713177056   -0.3055506305   -2.4414304652
  H        -1.8352445246   -1.8410864125   -1.5679994526
  O        -1.8299160891    1.7008018861    0.0000000000
  H        -2.7735169896    1.9259950661    0.0000000000
  C         1.1622909290    1.2027759716    0.0000000000
  H         0.6476273303    2.1608392067    0.0000000000
  C         2.5585875536    1.1654527184    0.0000000000
  H         3.1258027034    2.0938067210    0.0000000000
  C         3.2272311227   -0.0604167334    0.0000000000
  H         4.3145797224   -0.0896596227    0.0000000000
  C         2.4950552208   -1.2499559411    0.0000000000
  H         3.0111620470   -2.2076180927    0.0000000000
  C         1.0998747714   -1.2076164096    0.0000000000
  H         0.5492620708   -2.1488381396    0.0000000000
