20

  C         0.4088209081   -0.0092695228   -0.0542258330
  Si       -1.4625021882    0.0317851299   -0.0445026146
  C        -2.1301818139    0.1825128456    1.7082556584
  H        -3.2245227499    0.2302822875    1.7288892730
  H        -1.8289072869   -0.6820235146    2.3087312576
  H        -1.7418010769    1.0796641528    2.1989229546
  C        -2.1605512286   -1.5167331621   -0.8474157007
  H        -3.2532028237   -1.4754765951   -0.9094344306
  H        -1.7705478917   -1.6395408621   -1.8615487978
  H        -1.9044143589   -2.4148216652   -0.2759848486
  O        -1.8356124538    1.4127064035   -0.9354930318
  H        -2.7621282403    1.6989203277   -0.9001792957
  C         1.1488248554    1.1856398427   -0.1225253998
  H         0.6250517705    2.1316048436   -0.2433428275
  C         2.5440656752    1.1730413062   -0.0749632637
  H         3.0979493921    2.1073243319   -0.1370252980
  C         3.2290904188   -0.0370975136    0.0565551587
  H         4.3161073570   -0.0479438148    0.0946449501
  C         2.5141529107   -1.2344048225    0.1279648312
  H         3.0432600318   -2.1799988593    0.2247209350
  C         1.1188070835   -1.2165807101    0.0766325007
  H         0.5814349739   -2.1630414995    0.1242035769
