22

  C         0.4090680228   -0.0221260638   -0.0344576790
  Si       -1.4624897007    0.0077465130   -0.0607891000
  C        -2.1146790968    1.0053658737    1.3942165023
  H        -3.2083522339    1.0674546765    1.3930834475
  H        -1.8127786603    0.5428865074    2.3394368758
  H        -1.7213730438    2.0260603724    1.3828636922
  C        -2.1650612090   -1.7332440876    0.0150663108
  H        -3.2594615681   -1.7157136484   -0.0252254896
  H        -1.8132112071   -2.3448214146   -0.8204675289
  H        -1.8837015848   -2.2349434139    0.9464607102
  O        -1.8552175004    0.7623853814   -1.5166179811
  H        -2.7996679980    0.9402613374   -1.6548417017
  C         1.1339636731    1.1838323177   -0.0820297218
  H         0.6034655595    2.1307699431   -0.1720135503
  C         2.5287174751    1.1923809611   -0.0424269163
  H         3.0686366533    2.1357134671   -0.0867965915
  C         3.2311857948   -0.0108708316    0.0608636568
  H         4.3183697299   -0.0067994324    0.0943231030
  C         2.5335060182   -1.2186853884    0.1134808704
  H         3.0763365171   -2.1582063010    0.1910311215
  C         1.1372692614   -1.2204039069    0.0691099621
  H         0.6125234951   -2.1734629309    0.1049656157
