22

  C         0.4090204613    0.0207375133   -0.0269835480
  Si       -1.4624610927   -0.0102255295   -0.0599194591
  C        -2.1664914380    1.7295348012    0.0301418907
  H        -3.2609315523    1.7113620038   -0.0087763864
  H        -1.8841096892    2.2236664303    0.9652773458
  H        -1.8165307097    2.3484811460   -0.8007372381
  C        -2.1184257223   -1.0213878138    1.3839399108
  H        -3.2120605022   -1.0837349366    1.3788885720
  H        -1.7252022661   -2.0419904093    1.3645917879
  H        -1.8195085623   -0.5674896800    2.3342497308
  O        -1.8507144003   -0.7512657096   -1.5239761455
  H        -2.7953146758   -0.9229983650   -1.6689413125
  C         1.1365484748    1.2212148032    0.0534973985
  H         0.6109463192    2.1741506135    0.0771096196
  C         2.5329099048    1.2213860221    0.0931083658
  H         3.0751424677    2.1624950402    0.1537462956
  C         3.2315737579    0.0135660372    0.0558859641
  H         4.3188752865    0.0109893424    0.0854157235
  C         2.5298920964   -1.1917717672   -0.0261230679
  H         3.0705333705   -2.1351630187   -0.0587765311
  C         1.1349969890   -1.1849939920   -0.0609751905
  H         0.6053510363   -2.1339165713   -0.1336544712
