22

  C         0.4089772655    0.0089710059   -0.0385643388
  Si       -1.4624388340   -0.0330138124   -0.0414866597
  C        -2.1560380314    1.5280645367   -0.8236124028
  H        -3.2478074057    1.4837895375   -0.8980683536
  H        -1.9098802800    2.4163304665   -0.2328012399
  H        -1.7561108400    1.6710759737   -1.8312136579
  C        -2.1439556441   -0.2135756298    1.7031474804
  H        -3.2383223356   -0.2637939361    1.7141733373
  H        -1.7580404460   -1.1179494809    2.1824311487
  H        -1.8491265339    0.6415974510    2.3199742598
  O        -1.8283255667   -1.3989857806   -0.9582136117
  H        -2.7558534373   -1.6835175533   -0.9374261483
  C         1.1201767191    1.2195630895    0.0464164885
  H         0.5831996585    2.1669925187    0.0703506777
  C         2.5159107611    1.2382254751    0.0879464437
  H         3.0458955550    2.1861717648    0.1510025907
  C         3.2301879531    0.0392384557    0.0451094795
  H         4.3174524838    0.0508093800    0.0750007445
  C         2.5440776374   -1.1740523549   -0.0460103053
  H         3.0974221216   -2.1097630321   -0.0879971441
  C         1.1486329843   -1.1873311432   -0.0839507305
  H         0.6247029701   -2.1365532419   -0.1757365997
