24

  C         0.4212241054    0.0130771030    0.0169391388
  Si       -1.4668729974    0.0267896307    0.0023244925
  C        -2.1001361664   -1.6618378516    0.5587459416
  H        -3.1946597932   -1.6962021998    0.5510547213
  H        -1.7388784425   -2.4600839992   -0.0973140064
  H        -1.7635406023   -1.8906011580    1.5745077698
  C        -2.1062046376    1.3598192070    1.1728787469
  H        -3.2011203525    1.3747521964    1.1689906464
  H        -1.7836878740    1.1831862021    2.2035719040
  H        -1.7629303764    2.3564191546    0.8787639767
  C        -2.0671181186    0.3823015175   -1.7513168156
  H        -3.1610166742    0.3854440257   -1.8021448779
  H        -1.7047087157   -0.3708047357   -2.4581349803
  H        -1.7115521997    1.3580223181   -2.0961896033
  C         1.1745498076    0.8951864036    0.8124749740
  H         0.6668863734    1.6184471890    1.4482813805
  C         2.5716617054    0.8677404979    0.8086151260
  H         3.1304257941    1.5612836765    1.4334574388
  C         3.2496795717   -0.0487861524    0.0033803075
  H         4.3370957311   -0.0723674200   -0.0017022405
  C         2.5250458946   -0.9360828695   -0.7962475345
  H         3.0476547742   -1.6528576617   -1.4261280064
  C         1.1299121904   -0.9016524838   -0.7861726190
  H         0.5863626023   -1.6038884644   -1.4186086909
