24

  C         0.4206954133   -0.0170372096   -0.0237898300
  Si       -1.4665734985    0.0386870966   -0.0073416476
  C        -2.1152545616   -1.3575709149    1.0843507832
  H        -3.2093463745   -1.3485113168    1.1300134158
  H        -1.8027946565   -2.3328653281    0.6988466781
  H        -1.7400136584   -1.2710216081    2.1089437268
  C        -2.0281902143    1.7006588559    0.6887211331
  H        -3.1207034100    1.7639527548    0.7289191233
  H        -1.6496228098    1.8576134665    1.7036749517
  H        -1.6659402276    2.5266505518    0.0690810135
  C        -2.1280135129   -0.1693438448   -1.7608962456
  H        -3.2225058480   -0.1351846812   -1.7600574280
  H        -1.8296125876   -1.1280792193   -2.1960063634
  H        -1.7748257840    0.6259692967   -2.4244275776
  C         1.1445612180    0.1209218128    1.1766000653
  H         0.6132466981    0.2607817252    2.1182362507
  C         2.5395238962    0.0835104969    1.1963430440
  H         3.0740624501    0.1926725304    2.1376137349
  C         3.2486326175   -0.0942900539    0.0058336229
  H         4.3358505197   -0.1240586989    0.0169746719
  C         2.5553862331   -0.2335351859   -1.1975447663
  H         3.1020490291   -0.3722218584   -2.1279110998
  C         1.1585750099   -0.1948503952   -1.2080107679
  H         0.6388856584   -0.3055441463   -2.1581392990
