6

Si       -0.5397056177   -0.0274589074   -0.0276505470
H        -0.9802094192   -1.4491333547   -0.0398592099
H        -1.1282179742    0.6897028764   -1.1799702749
H        -1.0355138405    0.5984222608    1.2255031510
O         1.1221145034    0.0862554899   -0.1770369050
H         1.6368007282   -0.6428262962    0.1986351690
