6

Si       -0.5393774621   -0.0245784717   -0.0424646358
H        -1.0697915976   -1.2103655653   -0.7678357629
H        -1.0665246792    1.2112994652   -0.6581084400
H        -1.0040294516   -0.1193113572    1.3677952980
O         1.1254857124    0.0876123098   -0.1505114348
H         1.6313905029   -0.6510830860    0.2199921232
