6

Si       -0.5393893479   -0.0450319559   -0.0793409076
H        -1.1707698946   -1.1761707869   -0.8073699746
H        -1.0579489450    1.2273318474   -0.6271529635
H        -0.9098794274   -0.1722888916    1.3567686719
O         1.1224015083   -0.0238177744   -0.2665673711
H         1.6327391312   -0.5164491438    0.3925296926
