20

  C        -0.5200196894   -1.4979415878    1.1266336559
  H         0.2950190176   -1.5019108813    1.8572889316
  H        -1.4623945970   -1.5143216479    1.6835018471
  H        -0.4568230560   -2.4292257551    0.5544996568
  Si       -0.4190703376    0.0088940526   -0.0085303485
  C        -1.8544810533   -0.0255876759   -1.2359928067
  H        -1.8203390114    0.8348965220   -1.9119251024
  H        -2.8195474842   -0.0021708045   -0.7196663892
  H        -1.8298520800   -0.9309314844   -1.8508248381
  C        -0.5259440008    1.5857215112    1.0273965471
  H        -0.4634950546    2.4786954139    0.3971499281
  H         0.2789036977    1.6443046699    1.7665862441
  H        -1.4746813340    1.6308212135    1.5718804476
  C         1.2191740778   -0.0054414809   -0.9572544782
  H         1.2480961792    0.9171221669   -1.5525128761
  H         1.2267936764   -0.8244334119   -1.6866988241
  C         2.4699783957   -0.0819599359   -0.0625570860
  H         3.3282717698    0.4177059951   -0.5215432129
  H         2.3140857805    0.4141804699    0.9017913755
  H         2.7452223174   -1.1179086832    0.1500786191
