20

  C        -0.5154851012   -1.5361561271    1.0718475098
  H         0.3000045283   -1.5653292579    1.8014317095
  H        -1.4574252035   -1.5750599160    1.6283327354
  H        -0.4506543746   -2.4456696405    0.4658701752
  Si       -0.4188777057    0.0115951594   -0.0073487205
  C        -1.8558303546    0.0192756157   -1.2333922430
  H        -1.8242924143    0.9041348593   -1.8772113740
  H        -2.8202033908    0.0217461166   -0.7152524818
  H        -1.8302946181   -0.8627622212   -1.8811758263
  C        -0.5271521596    1.5490730434    1.0859233551
  H        -0.4678522764    2.4646175823    0.4886359276
  H         0.2791695012    1.5823869662    1.8250747281
  H        -1.4748627594    1.5721236863    1.6335656732
  C         1.2179487604    0.0354348292   -0.9582077799
  H         1.2425148214    0.9794488412   -1.5193714676
  H         1.2271590206   -0.7563867450   -1.7168596653
  C         2.4695636157   -0.0720662588   -0.0681767441
  H         2.3154896785    0.3631494558    0.9246394355
  H         2.7296352771   -1.1215910377    0.0990278066
  H         3.3399362046    0.4132216161   -0.5183480760
