20

  C         0.5626171702    0.7531757918    1.7144361003
  H        -0.2375860147    0.4101254741    2.3776090574
  H         1.5151849459    0.4860249921    2.1832527119
  H         0.5110313411    1.8458811959    1.6693291824
  Si        0.4154944957   -0.0111410849   -0.0075200796
  C         1.8569976005    0.5757648180   -1.0781502164
  H         1.8042122650    0.1485907267   -2.0846906698
  H         2.8187260240    0.2832608987   -0.6445452756
  H         1.8580696408    1.6656706627   -1.1806286609
  C         0.4680050807   -1.8947525303    0.1348142509
  H         0.3608165288   -2.3700963431   -0.8456111802
  H        -0.3333711367   -2.2733071283    0.7769093940
  H         1.4181612007   -2.2301872755    0.5629207705
  C        -1.2129914951    0.5263774138   -0.8109088130
  H        -1.2530213927    0.1154287239   -1.8284092367
  H        -1.1994528231    1.6177230487   -0.9316855652
  C        -2.4706258956    0.1096006963   -0.0372629595
  H        -2.5323246521   -0.9779836335    0.0655842943
  H        -2.4778817193    0.5367843901    0.9700492620
  H        -3.3837330620    0.4429736084   -0.5406949890
