21

  C        -1.8607673797    1.6555959908    0.8302246561
  H        -1.5148935160    2.5450376745    0.2951590632
  H        -2.9553720347    1.6761838962    0.8506321472
  H        -1.5023305771    1.7274065258    1.8615969007
  Si       -1.2141690183    0.0952641114   -0.0044967481
  C        -1.7241909028   -1.4331236408    0.9771689322
  H        -1.3484095363   -2.3502789235    0.5128479341
  H        -2.8145617617   -1.5144226094    1.0330631621
  H        -1.3432944205   -1.3951176557    2.0025797483
  C        -1.8699717075   -0.0094143489   -1.7676348030
  H        -1.5177632024   -0.9182213132   -2.2650132528
  H        -1.5229888940    0.8465357793   -2.3541541583
  H        -2.9647273084   -0.0145995715   -1.7899228990
  C         0.6612265031    0.1530719894   -0.0487231908
  N         1.2718166708    1.1773873421   -0.7075007641
  N         2.5886517683    0.9360705569   -0.5578387077
  H         3.2499766571    1.5808578162   -0.9741759768
  C         1.6309339121   -0.7167465435    0.5051334702
  H         1.4583466109   -1.6157097042    1.0814611300
  C         2.8624418944   -0.1865018248    0.1603632117
  H         3.8775628009   -0.5021661356    0.3590426355
