21

  C        -1.8566882718    0.1504865788    1.7964494003
  H        -1.4684855185    1.0345357541    2.3097896812
  H        -2.9504794411    0.1909520962    1.8229688168
  H        -1.5362460750   -0.7281544782    2.3640658154
  Si       -1.2135389204    0.0790039876    0.0298006631
  C        -1.7560174595   -1.5207626187   -0.8110236902
  H        -1.3783158312   -1.5858672099   -1.8365536461
  H        -2.8477624253   -1.5879844031   -0.8591029433
  H        -1.3909934488   -2.3954715741   -0.2643343284
  C        -1.8423092451    1.5628614028   -0.9509899545
  H        -1.4638031734    1.5485626257   -1.9778144100
  H        -1.5130439558    2.4980146116   -0.4878026384
  H        -2.9364020876    1.5758509700   -0.9963715531
  C         0.6627398801    0.1077986265    0.0787181105
  N         1.2879857272    0.8219889057    1.0560273400
  N         2.6003245991    0.6935445248    0.7794953905
  H         3.2706698835    1.1405119852    1.3936308579
  C         1.6195770294   -0.4548797515   -0.8004850393
  H         1.4354652590   -1.0746489938   -1.6679054773
  C         2.8575231201   -0.0633331265   -0.3213671974
  H         3.8673169134   -0.2559005019   -0.6573827070
