21

  C        -1.8399698023    0.4837944901    1.7727865523
  H        -1.5633587538    1.5070151718    2.0436863738
  H        -2.9298212519    0.3993946286    1.8342497697
  H        -1.4018853020   -0.1850721528    2.5187721499
  Si       -1.2121964991    0.0527257552    0.0526167900
  C        -1.7682723066   -1.6837088473   -0.4323361977
  H        -1.3942957873   -1.9543264892   -1.4246781750
  H        -2.8604733704   -1.7612639804   -0.4524350770
  H        -1.3909554094   -2.4244923365    0.2792281921
  C        -1.8427497208    1.2925756369   -1.2226561657
  H        -1.4726234646    1.0592762530   -2.2262561554
  H        -1.5235931544    2.3099637884   -0.9770500924
  H        -2.9366905611    1.2868697631   -1.2676763505
  C         0.6632886102    0.1296355655    0.0638567506
  N         1.3336511705   -0.2385607904    1.1913188973
  N         2.6349874862   -0.1329805637    0.8587666087
  H         3.3332299181   -0.3505052107    1.5598014604
  C         1.5815052681    0.4576720538   -0.9629698774
  H         1.3575465477    0.7890702115   -1.9681622049
  C         2.8424455713    0.2821841692   -0.4201227746
  H         3.8377473700    0.4178422952   -0.8209279836
