21

  C        -1.8483192005    0.6016587683    1.7119441989
  H        -1.5481661415    1.6352278877    1.9094692845
  H        -2.9407896309    0.5509174110    1.7661227665
  H        -1.4396604510   -0.0221871834    2.5124644279
  Si       -1.2112284999    0.0200077124    0.0370690299
  C        -1.7666590166   -1.7518114415   -0.2820646976
  H        -1.4194076310   -2.1028581088   -1.2585633088
  H        -2.8577589134   -1.8413421546   -0.2593622919
  H        -1.3554709794   -2.4226449001    0.4781591076
  C        -1.8329627464    1.1589720601   -1.3326358973
  H        -1.4642127608    0.8429239185   -2.3135054628
  H        -1.5116210850    2.1925352915   -1.1698737309
  H        -2.9269559401    1.1563019385   -1.3747765055
  C         0.6643924971    0.0861262250    0.0357297101
  N         1.3489984010   -0.6625918107    0.9450043377
  N         2.6452475955   -0.4000458122    0.6892498840
  H         3.3525449957   -0.8554901914    1.2538197193
  C         1.5680924379    0.8096613998   -0.7788059049
  H         1.3298059819    1.4879216330   -1.5870533357
  C         2.8359594901    0.4759382529   -0.3340928788
  H         3.8256881554    0.7778885152   -0.6484859617
