8

Si        0.6435418464   -0.0001884088    0.0000000000
H         1.1664092816   -0.6962440020   -1.2055687500
H         1.1664092816   -0.6962440020    1.2055687500
H         1.1664841684    1.3918622811    0.0000000000
C        -1.2398486213   -0.0001347997    0.0000000000
H        -1.6319379243    0.5100456620    0.8836485262
H        -1.6319662963   -1.0204767011    0.0000000000
H        -1.6319379243    0.5100456620   -0.8836485262
