8

Si        0.6390120812    0.0207233635    0.0263016932
H         1.1474967069    1.3928927226   -0.2376460135
H         1.2223585432   -0.8883804799   -0.9956169891
H         1.1419971131   -0.4056195744    1.3590868787
C        -1.2529794627   -0.0230065947   -0.0293222905
H        -1.6652164011    0.9651035737   -0.2460161570
H        -1.6689887405   -0.3538124927    0.9250202100
H        -1.6100436862   -0.7078714724   -0.8018087715
