18

  C        -0.4788073552   -1.4070387661    1.2577867981
  H         0.4313625351   -1.4342514929    1.8639089888
  H        -1.3319747161   -1.2841365838    1.9322466728
  H        -0.5788008704   -2.3802498885    0.7671344133
  Si       -0.3864386902   -0.0121864452   -0.0036147728
  C        -1.8740818087   -0.0631599199   -1.1651100782
  H        -1.8391778375    0.7479347568   -1.8991809253
  H        -2.8108305076    0.0348210545   -0.6073395949
  H        -1.9161521131   -1.0084163944   -1.7155079973
  C        -0.3246548044    1.6520305012    0.8914219525
  H        -0.2001202530    2.4846258669    0.1911793860
  H         0.4944215256    1.6940694050    1.6170086564
  H        -1.2509034992    1.8282485541    1.4473420089
  C         1.2186991959   -0.1915979194   -1.0123081310
  H         1.2593276983    0.5050231675   -1.8648528419
  H         1.3017376373   -1.1983450093   -1.4340824916
  O         2.3901846927   -0.0388883348   -0.1740152143
  H         2.3406874077    0.8503779078    0.2149308878
