18

  C        -0.4432674041   -1.5682456132    1.0758862042
  H         0.4623184763   -1.6625531167    1.6829978359
  H        -1.2984582361   -1.5123202890    1.7567200667
  H        -0.5429711930   -2.4866250895    0.4890999997
  Si       -0.3501209745   -0.0527528236   -0.0404640251
  C        -1.8482156999    0.0262069244   -1.1836012046
  H        -1.8162905446    0.9132843045   -1.8236629211
  H        -2.7792369004    0.0635409638   -0.6093533503
  H        -1.8977239172   -0.8523692007   -1.8345506149
  C        -0.2600754339    1.5078653668    1.0238774812
  H        -0.1040472667    2.4033590202    0.4138719436
  H         0.5444089803    1.4636137662    1.7662801268
  H        -1.1918140987    1.6472440904    1.5811713922
  C         1.2327729825   -0.1186668218   -1.0983022581
  H         1.1844798062    0.6379851861   -1.8981968333
  H         1.3263128079   -1.0888882971   -1.5985184560
  O         2.4496283326    0.0568158054   -0.3383731335
  H         2.2464111872    0.6224642852    0.4235464571
