16
new inter-mol distance:  3.39175
   Si     2.206519773     0.028225580     0.000619108
    H     1.719687849     0.752119435    -1.196193955
    H     1.720552923     0.738931435     1.205678115
    H     1.620645936    -1.331752276    -0.006589851
    C     4.082202750    -0.060760672    -0.000507565
    H     4.444822828    -0.592187257     0.877602138
    H     4.444224422    -0.582384122    -0.884721181
    H     4.516939396     0.937214734     0.004896367
   Si    -3.818392200    -0.011686731     0.002224503
    H    -4.356802203     0.670373197    -1.197047940
    H    -4.346444963     0.673315065     1.204418389
    H    -4.313212965    -1.407566574     0.006059864
    C    -1.940678943     0.022827011    -0.005899738
    H    -1.541423517    -0.477963486     0.874488394
    H    -1.548925315    -0.480332570    -0.888304356
    H    -1.573712274     1.047912798    -0.008859978
