9
new inter-mol distance:  2.20689
   Si    -1.590598502     0.019645355    -0.008371834
    H    -1.696349425     1.496926992     0.064699016
    H    -2.714901285    -0.581158259     0.734927303
    H    -1.699291688    -0.361133473    -1.437811587
    O    -0.207765106    -0.542841760     0.693706202
    H     0.624405663    -0.193065676     0.338192003
    O     2.583032485     0.547746898    -0.358438324
    H     3.039800032     1.088382876     0.291032975
    H     3.211198287    -0.145792326    -0.576655958
