10
new inter-mol distance:  1.62479
   Si    -1.357952553     0.015729139     0.091827750
    H    -2.655810102    -0.247964206    -0.574393176
    H    -1.336649227     1.427474306     0.524374607
    H    -1.244771178    -0.890038167     1.252678532
    N     0.057221947    -0.239783031    -0.898128428
    H     0.172615433     0.367672861    -1.696977438
    H     0.246321187    -1.189203109    -1.186508985
    O     2.221410010     0.331572428     0.392975714
    H     2.009757919     0.602116826     1.287985357
    H     1.358345960     0.135457231    -0.000216870
