10
new inter-mol distance:  2.69926
   Si    -0.395725817    -0.019085986     0.181857779
    H     0.025365835    -0.349748957     1.562579520
    H     0.065532965     1.348704736    -0.138762186
    H     0.185369743    -1.013156094    -0.744935367
    N    -2.111040931    -0.035277802    -0.101261000
    H    -2.674435228     0.660070985     0.362230073
    H    -2.586697176    -0.923123704    -0.066075391
    O     2.727262800     0.140250979     0.206246615
    H     2.747771752     1.047748175    -0.107062323
    H     2.825602485    -0.377966203    -0.596211209
