9
new inter-mol distance:  2.54508
   Si    -0.453708778    -0.016823120    -0.001959500
    H    -0.013963969     1.259595623    -0.610466039
    H    -0.084049143    -1.167445054    -0.835567245
    H     0.110902444    -0.114477238     1.362067507
    O    -2.119558308    -0.073054868     0.062609485
    H    -2.545782846     0.607171227     0.585864620
    O     2.182877842    -0.072394913    -0.176548588
    H     2.425335766     0.518120224    -0.894129658
    H     2.490845415     0.383931501     0.610397693
