14
new inter-mol distance:  2.55960
   Si    -1.603238946    -0.037666475    -0.093158434
    H    -1.351489209     0.587977452    -1.416517664
    H    -1.362259228    -1.490505278    -0.207462190
    H    -0.720166038     0.598793029     0.904338035
    N    -3.226075392     0.145065116     0.503430997
    H    -3.972557755    -0.323149309     0.014787982
    H    -3.532381265     1.064684992     0.778721563
   Si     2.143535129     0.231321386     0.226375660
    H     3.599333537     0.119855332    -0.046841282
    H     1.881125105    -0.402524488     1.534878100
    H     1.800849510     1.668171235     0.260431233
    N     1.101671677    -0.526295713    -0.939871092
    H     1.118836347    -1.532665697    -1.006320882
    H     1.063205008    -0.131657270    -1.867101456
