14
new inter-mol distance:  3.12840
   Si    -1.603238946    -0.037666475    -0.093158434
    H    -1.351489209     0.587977452    -1.416517664
    H    -1.362259228    -1.490505278    -0.207462190
    H    -0.720166038     0.598793029     0.904338035
    N    -3.226075392     0.145065116     0.503430997
    H    -3.972557755    -0.323149309     0.014787982
    H    -3.532381265     1.064684992     0.778721563
   Si     2.731713318     0.223209066     0.187093622
    H     4.187511726     0.111743012    -0.086123320
    H     2.469303294    -0.410636808     1.495596063
    H     2.389027699     1.660058915     0.221149196
    N     1.689849866    -0.534408033    -0.979153130
    H     1.707014536    -1.540778017    -1.045602919
    H     1.651383197    -0.139769590    -1.906383494
