12
new inter-mol distance:  1.85842
   Si     2.376764240     0.137270735     0.463705189
    H     2.850818527    -0.458840989     1.729658577
    H     1.788718359     1.464378485     0.699128015
    H     3.512521005     0.224749011    -0.476920657
    O     1.131720522    -0.774155642    -0.187458262
    H     1.331328116    -1.685531717    -0.412871535
   Si    -2.517416710     0.175149053    -0.037895025
    H    -2.823753194    -1.194347469     0.442583537
    H    -3.721626052     0.745892212    -0.670324856
    H    -2.156417688     0.987966505     1.149050920
    O    -1.330498713     0.185314303    -1.185410746
    H    -0.466765942    -0.139300246    -0.891404571
