10
new inter-mol distance:  2.83422
   Si    -0.395725817    -0.019085986     0.181857779
    H     0.025365835    -0.349748957     1.562579520
    H     0.065532965     1.348704736    -0.138762186
    H     0.185369743    -1.013156094    -0.744935367
    N    -2.111040931    -0.035277802    -0.101261000
    H    -2.674435228     0.660070985     0.362230073
    H    -2.586697176    -0.923123704    -0.066075391
    O     2.863739403     0.147245530     0.207893510
    H     2.884248355     1.054742726    -0.105415428
    H     2.962079088    -0.370971651    -0.594564314
