14
new inter-mol distance:  4.48411
   Si     2.701607000     0.125690888    -0.270400178
    H     3.881940247    -0.764955877    -0.394351651
    H     3.074781685     1.254572160     0.606696963
    H     2.345683281     0.606987292    -1.620593772
    N     1.274958878    -0.611037074     0.407064268
    H     1.327705539    -0.932294968     1.362965471
    H     0.821958737    -1.325136373    -0.145472211
   Si    -5.021940330     0.144746558    -0.154365318
    H    -5.065964911     0.843305361    -1.466653904
    H    -6.411694795     0.086071116     0.349760415
    H    -4.519318188    -1.225417871    -0.410734054
    N    -4.010813504     0.838725929     1.060870051
    H    -4.236167491     1.754466253     1.414265096
    H    -3.011721886     0.740207561     0.924229251
