14
new inter-mol distance:  4.29080
   Si     1.924810978     0.221250999     0.126279543
    H     1.412655312     0.307098559     1.517792385
    H     1.133853934    -0.817922695    -0.568974842
    H     1.726171862     1.539629336    -0.510559482
    N     3.598001176    -0.193061537    -0.046238154
    H     3.898337608    -1.114121400     0.229631138
    H     4.290301474     0.485203856     0.228290528
   Si    -3.650982178    -0.453822847    -0.255149757
    H    -3.418174156    -0.896527515    -1.653429752
    H    -3.226313628    -1.550233605     0.640135337
    H    -2.823047043     0.750614174    -0.027422443
    N    -5.284969321    -0.045909250     0.151789018
    H    -5.967651879    -0.785621249     0.192782747
    H    -5.695997692     0.769237596    -0.274285502
