16
new inter-mol distance:  3.64221
   Si     2.014998435     0.321073490    -0.133289128
    H     1.503542539     1.072357510     1.035552051
    H     1.215154919    -0.917779499    -0.277040965
    H     1.816801357     1.147049434    -1.346132733
    C     3.832693717    -0.093902041     0.092465048
    H     4.212738567    -0.647371106    -0.764407842
    H     3.983063110    -0.702802282     0.982191073
    H     4.425687573     0.812791426     0.199197617
   Si    -2.756268782    -0.354931721     0.002104786
    H    -2.526499481    -1.524567020    -0.876218474
    H    -2.233853352    -0.670456208     1.351104751
    H    -1.989936779     0.792475460    -0.537910574
    C    -4.586416155     0.059165023     0.083172700
    H    -4.760538136     0.920840304     0.725175114
    H    -5.155165556    -0.779422870     0.481202085
    H    -4.974762276     0.291150656    -0.906982471
