12
new inter-mol distance:  1.48674
   Si     2.376764240     0.137270735     0.463705189
    H     2.850818527    -0.458840989     1.729658577
    H     1.788718359     1.464378485     0.699128015
    H     3.512521005     0.224749011    -0.476920657
    O     1.131720522    -0.774155642    -0.187458262
    H     1.331328116    -1.685531717    -0.412871535
   Si    -2.119575882     0.140017741     0.026311232
    H    -2.425912366    -1.229478781     0.506789793
    H    -3.323785224     0.710760900    -0.606118599
    H    -1.758576860     0.952835193     1.213257177
    O    -0.932657885     0.150182991    -1.121204490
    H    -0.068925114    -0.174431558    -0.827198314
