14
new inter-mol distance:  1.79364
   Si     2.701607000     0.125690888    -0.270400178
    H     3.881940247    -0.764955877    -0.394351651
    H     3.074781685     1.254572160     0.606696963
    H     2.345683281     0.606987292    -1.620593772
    N     1.274958878    -0.611037074     0.407064268
    H     1.327705539    -0.932294968     1.362965471
    H     0.821958737    -1.325136373    -0.145472211
   Si    -2.069379774    -0.074728014    -0.275990742
    H    -2.113404354     0.623830789    -1.588279328
    H    -3.459134238    -0.133403456     0.228134991
    H    -1.566757632    -1.444892443    -0.532359478
    N    -1.058252948     0.619251357     0.939244627
    H    -1.283606935     1.534991681     1.292639672
    H    -0.059161329     0.520732990     0.802603827
