9
new inter-mol distance:  4.24179
   Si    -0.453708778    -0.016823120    -0.001959500
    H    -0.013963969     1.259595623    -0.610466039
    H    -0.084049143    -1.167445054    -0.835567245
    H     0.110902444    -0.114477238     1.362067507
    O    -2.119558308    -0.073054868     0.062609485
    H    -2.545782846     0.607171227     0.585864620
    O     4.016813895    -0.067841724    -0.291500989
    H     4.259271819     0.522673413    -1.009082059
    H     4.324781468     0.388484690     0.495445291
