12
new inter-mol distance:  2.19040
   Si     1.877277124    -0.264555006    -0.002147324
    H     1.013054241     0.893525003     0.332506176
    H     1.752218881    -1.299809326     1.036281626
    H     1.434006711    -0.793004013    -1.311922261
    O     3.481273335     0.161191906    -0.019552128
    H     3.741996224     0.827557153    -0.657431446
   Si    -1.118174975     0.219097698     0.038072495
    H    -0.247072887    -0.969746919     0.204513322
    H    -0.998219028     1.096468703     1.213539403
    H    -0.679124645     0.931183136    -1.183149248
    O    -2.719718340    -0.209052255    -0.039922143
    H    -2.977845249    -0.775949990    -0.768566233
