14
new inter-mol distance:  2.98620
   Si    -1.603238946    -0.037666475    -0.093158434
    H    -1.351489209     0.587977452    -1.416517664
    H    -1.362259228    -1.490505278    -0.207462190
    H    -0.720166038     0.598793029     0.904338035
    N    -3.226075392     0.145065116     0.503430997
    H    -3.972557755    -0.323149309     0.014787982
    H    -3.532381265     1.064684992     0.778721563
   Si     2.585442722     0.225226471     0.196862443
    H     4.041241130     0.113760417    -0.076354499
    H     2.323032698    -0.408619402     1.505364883
    H     2.242757103     1.662076321     0.230918016
    N     1.543579270    -0.532390627    -0.969384309
    H     1.560743940    -1.538760611    -1.035834099
    H     1.505112601    -0.137752185    -1.896614673
