11
new inter-mol distance:  4.40172
   Si    -0.456816672    -0.011267898     0.000000000
    H     0.060405830    -0.689012196    -1.208291248
    H     0.060405830    -0.689012196     1.208291248
    H    -0.017078837     1.401913519     0.000000000
    C    -2.339206887    -0.077513181     0.000000000
    H    -2.746574647     0.416484054     0.880759883
    H    -2.691929639    -1.107749675     0.000000000
    H    -2.746574647     0.416484054    -0.880759883
    O     4.263424218     0.376108860     0.000000000
    H     4.674961144     1.242898352     0.000000000
    H     5.004278011    -0.233555181     0.000000000
