16
new inter-mol distance:  2.73166
   Si     2.014998435     0.321073490    -0.133289128
    H     1.503542539     1.072357510     1.035552051
    H     1.215154919    -0.917779499    -0.277040965
    H     1.816801357     1.147049434    -1.346132733
    C     3.832693717    -0.093902041     0.092465048
    H     4.212738567    -0.647371106    -0.764407842
    H     3.983063110    -0.702802282     0.982191073
    H     4.425687573     0.812791426     0.199197617
   Si    -1.622846499    -0.276833478    -0.014846304
    H    -1.393077198    -1.446468778    -0.893169565
    H    -1.100431068    -0.592357965     1.334153660
    H    -0.856514496     0.870573702    -0.554861665
    C    -3.452993872     0.137263265     0.066221609
    H    -3.627115853     0.998938546     0.708224023
    H    -4.021743272    -0.701324627     0.464250995
    H    -3.841339993     0.369248899    -0.923933562
