12
new inter-mol distance:  3.01180
   Si     1.877277124    -0.264555006    -0.002147324
    H     1.013054241     0.893525003     0.332506176
    H     1.752218881    -1.299809326     1.036281626
    H     1.434006711    -0.793004013    -1.311922261
    O     3.481273335     0.161191906    -0.019552128
    H     3.741996224     0.827557153    -0.657431446
   Si    -2.258364289     0.267421125     0.043132739
    H    -1.387262201    -0.921423492     0.209573565
    H    -2.138408343     1.144792129     1.218599647
    H    -1.819313959     0.979506563    -1.178089004
    O    -3.859907654    -0.160728829    -0.034861900
    H    -4.118034563    -0.727626564    -0.763505990
