12
new inter-mol distance:  2.73800
   Si     1.877277124    -0.264555006    -0.002147324
    H     1.013054241     0.893525003     0.332506176
    H     1.752218881    -1.299809326     1.036281626
    H     1.434006711    -0.793004013    -1.311922261
    O     3.481273335     0.161191906    -0.019552128
    H     3.741996224     0.827557153    -0.657431446
   Si    -1.890348542     0.251823906     0.041499458
    H    -1.019246454    -0.937020711     0.207940284
    H    -1.770392595     1.129194911     1.216966366
    H    -1.451298211     0.963909344    -1.179722285
    O    -3.491891906    -0.176326047    -0.036495181
    H    -3.750018816    -0.743223782    -0.765139271
