9
new inter-mol distance:  1.74712
   Si    -1.590598502     0.019645355    -0.008371834
    H    -1.696349425     1.496926992     0.064699016
    H    -2.714901285    -0.581158259     0.734927303
    H    -1.699291688    -0.361133473    -1.437811587
    O    -0.207765106    -0.542841760     0.693706202
    H     0.624405663    -0.193065676     0.338192003
    O     2.117817224     0.460968778    -0.289847852
    H     2.574584771     1.001604756     0.359623447
    H     2.745983026    -0.232570445    -0.508065486
