11
new inter-mol distance:  2.35550
   Si    -1.917929331    -0.029870643     0.000000000
    H    -2.396708617    -0.746381011     1.203009641
    H    -2.396708617    -0.746381011    -1.203009641
    H    -2.492756587     1.334164347     0.000000000
    C    -0.038357362     0.056701441     0.000000000
    H     0.319001501     0.581015557    -0.885246536
    H     0.381600793    -0.948695229     0.000000000
    H     0.319001501     0.581015557     0.885246536
    O     3.538128271    -0.079507325     0.000000000
    H     3.742475408     0.857766459     0.000000000
    H     2.578565166    -0.099258009     0.000000000
