16
new inter-mol distance:  3.02854
   Si     3.762272567     0.100944777     0.006072646
    H     3.981291986     1.564414477     0.064186564
    H     4.389924271    -0.416429655    -1.231422106
    H     4.439607953    -0.519141536     1.167849490
    C     1.925645521    -0.291305561     0.027271718
    H     1.759401550    -1.366486120    -0.015128601
    H     1.421772543     0.162315456    -0.824405717
    H     1.458679937     0.087942478     0.934592371
   Si    -3.907140031    -0.117635489     0.010079163
    H    -4.136833352    -1.396538126    -0.700402598
    H    -4.710592472     0.935320271    -0.652331018
    H    -4.387581337    -0.264631914     1.403160260
    C    -2.083542944     0.330823852    -0.013915175
    H    -1.909161199     1.270643121     0.507335923
    H    -1.724878355     0.440041668    -1.036004450
    H    -1.487174644    -0.440077660     0.470757087
