9
new inter-mol distance:  3.67815
   Si    -1.590598502     0.019645355    -0.008371834
    H    -1.696349425     1.496926992     0.064699016
    H    -2.714901285    -0.581158259     0.734927303
    H    -1.699291688    -0.361133473    -1.437811587
    O    -0.207765106    -0.542841760     0.693706202
    H     0.624405663    -0.193065676     0.338192003
    O     4.040860082     0.819680234    -0.573377712
    H     4.497627629     1.360316212     0.076093587
    H     4.669025884     0.126141011    -0.791595346
