16
new inter-mol distance:  4.55277
   Si     2.014998435     0.321073490    -0.133289128
    H     1.503542539     1.072357510     1.035552051
    H     1.215154919    -0.917779499    -0.277040965
    H     1.816801357     1.147049434    -1.346132733
    C     3.832693717    -0.093902041     0.092465048
    H     4.212738567    -0.647371106    -0.764407842
    H     3.983063110    -0.702802282     0.982191073
    H     4.425687573     0.812791426     0.199197617
   Si    -3.791604769    -0.426271346     0.017588931
    H    -3.561835468    -1.595906645    -0.860734330
    H    -3.269189339    -0.741795833     1.366588895
    H    -3.025272766     0.721135834    -0.522426430
    C    -5.621752143    -0.012174603     0.098656844
    H    -5.795874124     0.849500679     0.740659258
    H    -6.190501543    -0.850762495     0.496686230
    H    -6.010098264     0.219811031    -0.891498327
