14
new inter-mol distance:  3.36308
   Si     2.701607000     0.125690888    -0.270400178
    H     3.881940247    -0.764955877    -0.394351651
    H     3.074781685     1.254572160     0.606696963
    H     2.345683281     0.606987292    -1.620593772
    N     1.274958878    -0.611037074     0.407064268
    H     1.327705539    -0.932294968     1.362965471
    H     0.821958737    -1.325136373    -0.145472211
   Si    -3.817416828     0.055209942    -0.203983498
    H    -3.861441408     0.753768745    -1.516272084
    H    -5.207171293    -0.003465500     0.300142235
    H    -3.314794686    -1.314954487    -0.460352234
    N    -2.806290002     0.749189313     1.011251871
    H    -3.031643989     1.664929637     1.364646916
    H    -1.807198383     0.650670946     0.874611071
