16
new inter-mol distance:  3.23758
   Si     2.206519773     0.028225580     0.000619108
    H     1.719687849     0.752119435    -1.196193955
    H     1.720552923     0.738931435     1.205678115
    H     1.620645936    -1.331752276    -0.006589851
    C     4.082202750    -0.060760672    -0.000507565
    H     4.444822828    -0.592187257     0.877602138
    H     4.444224422    -0.582384122    -0.884721181
    H     4.516939396     0.937214734     0.004896367
   Si    -3.652421463    -0.011679321     0.002242218
    H    -4.190831467     0.670380606    -1.197030225
    H    -4.180474227     0.673322474     1.204436103
    H    -4.147242229    -1.407559165     0.006077578
    C    -1.774708207     0.022834420    -0.005882023
    H    -1.375452780    -0.477956076     0.874506109
    H    -1.382954579    -0.480325161    -0.888286641
    H    -1.407741538     1.047920207    -0.008842263
