14
new inter-mol distance:  2.12995
   Si     2.701607000     0.125690888    -0.270400178
    H     3.881940247    -0.764955877    -0.394351651
    H     3.074781685     1.254572160     0.606696963
    H     2.345683281     0.606987292    -1.620593772
    N     1.274958878    -0.611037074     0.407064268
    H     1.327705539    -0.932294968     1.362965471
    H     0.821958737    -1.325136373    -0.145472211
   Si    -2.472324982    -0.044775630    -0.259392139
    H    -2.516349562     0.653783172    -1.571680725
    H    -3.862079446    -0.103451072     0.244733594
    H    -1.969702840    -1.414940059    -0.515760875
    N    -1.461198156     0.649203741     0.955843230
    H    -1.686552143     1.564944065     1.309238275
    H    -0.462106537     0.550685373     0.819202430
