16
new inter-mol distance:  4.32648
   Si     3.762272567     0.100944777     0.006072646
    H     3.981291986     1.564414477     0.064186564
    H     4.389924271    -0.416429655    -1.231422106
    H     4.439607953    -0.519141536     1.167849490
    C     1.925645521    -0.291305561     0.027271718
    H     1.759401550    -1.366486120    -0.015128601
    H     1.421772543     0.162315456    -0.824405717
    H     1.458679937     0.087942478     0.934592371
   Si    -5.231343579    -0.107146498     0.007930845
    H    -5.461036900    -1.386049136    -0.702550916
    H    -6.034796019     0.945809261    -0.654479336
    H    -5.711784885    -0.254142924     1.401011942
    C    -3.407746492     0.341312842    -0.016063493
    H    -3.233364747     1.281132112     0.505187605
    H    -3.049081903     0.450530658    -1.038152768
    H    -2.811378191    -0.429588670     0.468608770
