14
new inter-mol distance:  2.27520
   Si    -1.603238946    -0.037666475    -0.093158434
    H    -1.351489209     0.587977452    -1.416517664
    H    -1.362259228    -1.490505278    -0.207462190
    H    -0.720166038     0.598793029     0.904338035
    N    -3.226075392     0.145065116     0.503430997
    H    -3.972557755    -0.323149309     0.014787982
    H    -3.532381265     1.064684992     0.778721563
   Si     1.845231243     0.235435678     0.246298168
    H     3.301029651     0.123969624    -0.026918774
    H     1.582821219    -0.398410196     1.554800608
    H     1.502545625     1.672285527     0.280353741
    N     0.803367791    -0.522181421    -0.919948584
    H     0.820532461    -1.528551405    -0.986398374
    H     0.764901123    -0.127542978    -1.847178948
