14
new inter-mol distance:  4.26600
   Si    -1.603238946    -0.037666475    -0.093158434
    H    -1.351489209     0.587977452    -1.416517664
    H    -1.362259228    -1.490505278    -0.207462190
    H    -0.720166038     0.598793029     0.904338035
    N    -3.226075392     0.145065116     0.503430997
    H    -3.972557755    -0.323149309     0.014787982
    H    -3.532381265     1.064684992     0.778721563
   Si     3.930196663     0.206679245     0.107051776
    H     5.385995071     0.095213191    -0.166165166
    H     3.667786639    -0.427166629     1.415554217
    H     3.587511044     1.643529094     0.141107350
    N     2.888333211    -0.550937854    -1.059194976
    H     2.905497881    -1.557307838    -1.125644765
    H     2.849866542    -0.156299411    -1.986425340
