14
new inter-mol distance:  2.69046
   Si     2.701607000     0.125690888    -0.270400178
    H     3.881940247    -0.764955877    -0.394351651
    H     3.074781685     1.254572160     0.606696963
    H     2.345683281     0.606987292    -1.620593772
    N     1.274958878    -0.611037074     0.407064268
    H     1.327705539    -0.932294968     1.362965471
    H     0.821958737    -1.325136373    -0.145472211
   Si    -3.098870822     0.001797803    -0.233582709
    H    -3.142895402     0.700356605    -1.545871295
    H    -4.488625287    -0.056877640     0.270543024
    H    -2.596248680    -1.368366627    -0.489951445
    N    -2.087743996     0.695777173     0.981652660
    H    -2.313097983     1.611517498     1.335047705
    H    -1.088652377     0.597258806     0.845011860
