12
new inter-mol distance:  3.04948
   Si    -1.640187497     0.014756195    -0.076542663
    H    -1.249232765     0.430015437    -1.441631202
    H    -1.476279169    -1.439058300     0.106937392
    H    -0.831012870     0.762824413     0.910049803
    O    -3.267604738     0.280116950     0.176348953
    H    -3.569749209     1.178548253     0.032578653
   Si     2.830532049     0.090135153    -0.017563803
    H     3.206943334    -0.181298890     1.386777109
    H     2.432329228     1.498764399    -0.177522851
    H     3.995664737    -0.204283466    -0.879028378
    O     1.499593428    -0.801745688    -0.470492190
    H     1.530528608    -1.745248382    -0.298829760
