10
new inter-mol distance:  3.23911
   Si    -0.395725817    -0.019085986     0.181857779
    H     0.025365835    -0.349748957     1.562579520
    H     0.065532965     1.348704736    -0.138762186
    H     0.185369743    -1.013156094    -0.744935367
    N    -2.111040931    -0.035277802    -0.101261000
    H    -2.674435228     0.660070985     0.362230073
    H    -2.586697176    -0.923123704    -0.066075391
    O     3.272377432     0.168188605     0.212824639
    H     3.292886383     1.075685801    -0.100484299
    H     3.370717116    -0.350028577    -0.589633184
