14
new inter-mol distance:  2.24205
   Si     2.701607000     0.125690888    -0.270400178
    H     3.881940247    -0.764955877    -0.394351651
    H     3.074781685     1.254572160     0.606696963
    H     2.345683281     0.606987292    -1.620593772
    N     1.274958878    -0.611037074     0.407064268
    H     1.327705539    -0.932294968     1.362965471
    H     0.821958737    -1.325136373    -0.145472211
   Si    -2.600909530    -0.035217472    -0.254095329
    H    -2.644934111     0.663341330    -1.566383916
    H    -3.990663995    -0.093892915     0.250030403
    H    -2.098287388    -1.405381902    -0.510464066
    N    -1.589782704     0.658761898     0.961140040
    H    -1.815136691     1.574502223     1.314535085
    H    -0.590691086     0.560243531     0.824499239
