12
new inter-mol distance:  2.04427
   Si     2.376764240     0.137270735     0.463705189
    H     2.850818527    -0.458840989     1.729658577
    H     1.788718359     1.464378485     0.699128015
    H     3.512521005     0.224749011    -0.476920657
    O     1.131720522    -0.774155642    -0.187458262
    H     1.331328116    -1.685531717    -0.412871535
   Si    -2.711469231     0.192284850    -0.069212539
    H    -3.017805715    -1.177211672     0.411266022
    H    -3.915678573     0.763028008    -0.701642370
    H    -2.350470209     1.005102302     1.117733406
    O    -1.524551233     0.202450100    -1.216728261
    H    -0.660818463    -0.122164449    -0.922722085
