16
new inter-mol distance:  3.70009
   Si     2.206519773     0.028225580     0.000619108
    H     1.719687849     0.752119435    -1.196193955
    H     1.720552923     0.738931435     1.205678115
    H     1.620645936    -1.331752276    -0.006589851
    C     4.082202750    -0.060760672    -0.000507565
    H     4.444822828    -0.592187257     0.877602138
    H     4.444224422    -0.582384122    -0.884721181
    H     4.516939396     0.937214734     0.004896367
   Si    -4.147091958    -0.011701404     0.002189420
    H    -4.685501961     0.670358523    -1.197083023
    H    -4.675144721     0.673300391     1.204383306
    H    -4.641912723    -1.407581248     0.006024781
    C    -2.269378701     0.022812337    -0.005934821
    H    -1.870123274    -0.477978159     0.874453311
    H    -1.877625073    -0.480347244    -0.888339439
    H    -1.902412032     1.047898124    -0.008895061
