16
new inter-mol distance:  3.03518
   Si     2.014998435     0.321073490    -0.133289128
    H     1.503542539     1.072357510     1.035552051
    H     1.215154919    -0.917779499    -0.277040965
    H     1.816801357     1.147049434    -1.346132733
    C     3.832693717    -0.093902041     0.092465048
    H     4.212738567    -0.647371106    -0.764407842
    H     3.983063110    -0.702802282     0.982191073
    H     4.425687573     0.812791426     0.199197617
   Si    -2.007639979    -0.303347598    -0.009091460
    H    -1.777870678    -1.472982898    -0.887414720
    H    -1.485224549    -0.618872085     1.339908505
    H    -1.241307976     0.844059582    -0.549106820
    C    -3.837787352     0.110749145     0.071976453
    H    -4.011909334     0.972424426     0.713978868
    H    -4.406536753    -0.727838747     0.470005839
    H    -4.226133474     0.342734779    -0.918178717
