16
new inter-mol distance:  6.07036
   Si     2.014998435     0.321073490    -0.133289128
    H     1.503542539     1.072357510     1.035552051
    H     1.215154919    -0.917779499    -0.277040965
    H     1.816801357     1.147049434    -1.346132733
    C     3.832693717    -0.093902041     0.092465048
    H     4.212738567    -0.647371106    -0.764407842
    H     3.983063110    -0.702802282     0.982191073
    H     4.425687573     0.812791426     0.199197617
   Si    -5.422291515    -0.538633500     0.041976945
    H    -5.192522214    -1.708268799    -0.836346316
    H    -4.899876084    -0.854157987     1.390976909
    H    -4.655959512     0.608773681    -0.498038416
    C    -7.252438888    -0.124536757     0.123044858
    H    -7.426560869     0.737138525     0.765047272
    H    -7.821188288    -0.963124649     0.521074244
    H    -7.640785009     0.107448877    -0.867110313
