12
new inter-mol distance:  2.63364
   Si    -1.640187497     0.014756195    -0.076542663
    H    -1.249232765     0.430015437    -1.441631202
    H    -1.476279169    -1.439058300     0.106937392
    H    -0.831012870     0.762824413     0.910049803
    O    -3.267604738     0.280116950     0.176348953
    H    -3.569749209     1.178548253     0.032578653
   Si     2.413815652     0.121858682    -0.001926544
    H     2.790226938    -0.149575361     1.402414368
    H     2.015612831     1.530487929    -0.161885592
    H     3.578948340    -0.172559936    -0.863391119
    O     1.082877031    -0.770022158    -0.454854931
    H     1.113812211    -1.713524852    -0.283192501
