14
new inter-mol distance:  2.84400
   Si    -1.603238946    -0.037666475    -0.093158434
    H    -1.351489209     0.587977452    -1.416517664
    H    -1.362259228    -1.490505278    -0.207462190
    H    -0.720166038     0.598793029     0.904338035
    N    -3.226075392     0.145065116     0.503430997
    H    -3.972557755    -0.323149309     0.014787982
    H    -3.532381265     1.064684992     0.778721563
   Si     2.438710931     0.227250238     0.206662064
    H     3.894509339     0.115784184    -0.066554877
    H     2.176300907    -0.406595636     1.515164505
    H     2.096025312     1.664100087     0.240717638
    N     1.396847479    -0.530366861    -0.959584688
    H     1.414012149    -1.536736845    -1.026034477
    H     1.358380810    -0.135728418    -1.886815052
