10
new inter-mol distance:  2.49868
   Si     2.173201226     0.002277085    -0.000827763
    H     2.463893195     1.428917805     0.248702748
    H     1.532427706    -0.146056866    -1.323881333
    H     1.257386864    -0.502442133     1.043232525
    H     3.430773868    -0.772002931     0.029153171
   Si    -1.455685360    -0.001674344     0.000549518
    H    -0.932918541     0.364115800    -1.332094222
    H    -1.129168606    -1.413705370     0.286738081
    H    -2.921419564     0.181764118     0.022285617
    H    -0.834603214     0.863825923     1.024496544
