8
new inter-mol distance:  2.66913
   Si    -1.108790987    -0.166596795     0.115740777
    H    -2.554436181    -0.391847767     0.345117516
    H    -0.770573610     1.183718583     0.610627208
    H    -0.835842807    -0.271240984    -1.328115227
    H    -0.355482973    -1.186069849     0.871619838
    O     1.695285231     0.182274634    -0.324331320
    H     1.844704789     1.118580577    -0.173342529
    H     2.101749220    -0.238737389     0.437023761
