10
new inter-mol distance:  3.12335
   Si     2.173201226     0.002277085    -0.000827763
    H     2.463893195     1.428917805     0.248702748
    H     1.532427706    -0.146056866    -1.323881333
    H     1.257386864    -0.502442133     1.043232525
    H     3.430773868    -0.772002931     0.029153171
   Si    -2.172678691    -0.002434128     0.000813670
    H    -1.649911872     0.363356015    -1.331830070
    H    -1.846161937    -1.414465155     0.287002233
    H    -3.638412896     0.181004334     0.022549769
    H    -1.551596545     0.863066139     1.024760696
