8
new inter-mol distance:  3.26227
   Si    -1.108790987    -0.166596795     0.115740777
    H    -2.554436181    -0.391847767     0.345117516
    H    -0.770573610     1.183718583     0.610627208
    H    -0.835842807    -0.271240984    -1.328115227
    H    -0.355482973    -1.186069849     0.871619838
    O     2.291187060     0.261583035    -0.406263371
    H     2.440606618     1.197888978    -0.255274580
    H     2.697651049    -0.159428988     0.355091710
