10
new inter-mol distance:  3.27952
   Si     2.173201226     0.002277085    -0.000827763
    H     2.463893195     1.428917805     0.248702748
    H     1.532427706    -0.146056866    -1.323881333
    H     1.257386864    -0.502442133     1.043232525
    H     3.430773868    -0.772002931     0.029153171
   Si    -2.345429181    -0.002617188     0.000877314
    H    -1.822662362     0.363172955    -1.331766426
    H    -2.018912427    -1.414648215     0.287065877
    H    -3.811163386     0.180821273     0.022613413
    H    -1.724347035     0.862883079     1.024824340
