10
new inter-mol distance:  3.43569
   Si     2.173201226     0.002277085    -0.000827763
    H     2.463893195     1.428917805     0.248702748
    H     1.532427706    -0.146056866    -1.323881333
    H     1.257386864    -0.502442133     1.043232525
    H     3.430773868    -0.772002931     0.029153171
   Si    -2.516455261    -0.002798421     0.000940323
    H    -1.993688443     0.362991722    -1.331703417
    H    -2.189938507    -1.414829448     0.287128886
    H    -3.982189466     0.180640040     0.022676422
    H    -1.895373116     0.862701846     1.024887349
