10
new inter-mol distance:  4.60053
   Si    -2.355587420     0.000852678    -0.001125865
    H    -2.728992107     0.287798069    -1.400983250
    H    -2.856535997     1.078823011     0.875456972
    H    -0.884338632    -0.075218668     0.107530826
    H    -2.944965592    -1.288253407     0.413844090
   Si     4.026706391    -0.001477261     0.001986439
    H     3.469389958     0.251647744    -1.342590140
    H     3.549478294     1.038215603     0.936800816
    H     5.502347353     0.034609588    -0.062583815
    H     3.587028886    -1.329956411     0.475653337
