8
new inter-mol distance:  2.81742
   Si    -1.108790987    -0.166596795     0.115740777
    H    -2.554436181    -0.391847767     0.345117516
    H    -0.770573610     1.183718583     0.610627208
    H    -0.835842807    -0.271240984    -1.328115227
    H    -0.355482973    -1.186069849     0.871619838
    O     1.844805174     0.202174199    -0.344889195
    H     1.994224732     1.138480142    -0.193900405
    H     2.251269163    -0.218837823     0.416465886
