10
new inter-mol distance:  3.74803
   Si     2.173201226     0.002277085    -0.000827763
    H     2.463893195     1.428917805     0.248702748
    H     1.532427706    -0.146056866    -1.323881333
    H     1.257386864    -0.502442133     1.043232525
    H     3.430773868    -0.772002931     0.029153171
   Si    -2.854337991    -0.003156469     0.001064805
    H    -2.331571173     0.362633674    -1.331578935
    H    -2.527821237    -1.415187496     0.287253367
    H    -4.320072196     0.180281992     0.022800903
    H    -2.233255846     0.862343798     1.025011830
