10
new inter-mol distance:  3.68042
   Si    -2.355587420     0.000852678    -0.001125865
    H    -2.728992107     0.287798069    -1.400983250
    H    -2.856535997     1.078823011     0.875456972
    H    -0.884338632    -0.075218668     0.107530826
    H    -2.944965592    -1.288253407     0.413844090
   Si     3.039561188    -0.001120216     0.001509986
    H     2.482244754     0.252004788    -1.343066593
    H     2.562333090     1.038572648     0.936324364
    H     4.515202149     0.034966633    -0.063060268
    H     2.599883682    -1.329599366     0.475176884
