17

Si      0.0000095046     0.0000057438    -0.0000027626
C      -1.0425309493     0.8603111190     1.3188331867
H      -1.8993643685     0.2452439414     1.6119036917
H      -1.4308923883     1.8175528672     0.9566111006
H      -0.4556805583     1.0613693547     2.2207948949
C       1.4602257871     1.1029078804    -0.4665625165
H       1.7618142457     0.9441711232    -1.5068522507
H       1.2103712910     2.1625856631    -0.3525623868
H       2.3305877457     0.8984092261     0.1650973505
C      -1.0599795230    -0.3215327025    -1.5295032285
H      -0.4834665589    -0.8206088634    -2.3149379067
H      -1.4486764039     0.6126552165    -1.9473128522
H      -1.9171499297    -0.9596844633    -1.2920967582
C       0.6422698324    -1.6416897730     0.6772358246
H       1.2520470558    -2.1666012387    -0.0650504703
H      -0.1816780773    -2.3055853912     0.9577495286
H       1.2620439998    -1.4895669914     1.5666751376
