17

Si     -0.0000092217     0.0000072651    -0.0000012241
C       1.0043269114    -0.1120238219    -1.5953360137
H       1.8644688361    -0.7788296592    -1.4775453148
H       1.3852422474     0.8695278277    -1.8950140529
H       0.3974910407    -0.4975233777    -2.4208580612
C      -1.4673063165     1.1600667144    -0.2600089705
H      -1.2059106930     2.1935605469    -0.0111737122
H      -1.8056853946     1.1458644157    -1.3009957564
H      -2.3168805616     0.8733292897     0.3679622924
C       1.0935717609     0.6692016632     1.3865830086
H       0.5395963069     0.7465016810     2.3275861359
H       1.4762320435     1.6659921457     1.1450945709
H       1.9554533554     0.0176582763     1.5626304981
C      -0.6305823008    -1.7172520801     0.4687646958
H      -1.2182365560    -1.6866178141     1.3918425518
H       0.1976590843    -2.4153648920     0.6268754333
H      -1.2693609355    -2.1341550049    -0.3164037689
