17

Si     -0.0000084984     0.0000063138    -0.0000048655
C       1.0280531224    -1.1438375650    -1.0959426061
H       1.8846797590    -1.5526675559    -0.5506117911
H       1.4158650422    -0.6129419851    -1.9712114020
H       0.4328182442    -1.9881819720    -1.4580341660
C      -1.4603617511     0.6746032621    -0.9892419722
H      -1.1212286478     1.2410020993    -1.8624717624
H      -2.1042231455    -0.1342399407    -1.3491998667
H      -2.0778127659     1.3430516275    -0.3807379043
C       1.0741227870     1.4349362424     0.5946166492
H       0.5061725686     2.1182642735     1.2340149820
H       1.4628313608     2.0161411415    -0.2476698225
H       1.9316448108     1.0764876297     1.1729827592
C      -0.6418041472    -0.9657114131     1.4905741087
H      -1.2432695504    -0.3293131320     2.1475226935
H       0.1822393254    -1.3710358524     2.0863953380
H      -1.2696580900    -1.8065978843     1.1790519814
