17

Si      0.0000076210     0.0000072498    -0.0000055823
C      -1.0170211643     0.9730572511     1.2590300942
H      -1.8851203494     0.3986767162     1.5979252825
H      -1.3869466878     1.9106166136     0.8318476428
H      -0.4212405602     1.2243131137     2.1423549392
C       1.4807521119     1.0357465368    -0.5485879374
H       1.8115287984     1.7096247584     0.2481659625
H       2.3308638326     0.4015796670    -0.8196908679
H       1.2349157798     1.6500775112    -1.4206578799
C      -1.0746943446    -0.4053215814    -1.4990251844
H      -0.5130737633    -0.9706298749    -2.2496023666
H      -1.4457396281     0.5053398588    -1.9800266029
H      -1.9439086796    -1.0066310196    -1.2140258978
C       0.6109548069    -1.6034913450     0.7885893124
H       1.2055018703    -2.1922437260     0.0827372824
H      -0.2253746916    -2.2281563590     1.1182665142
H       1.2385389259    -1.4026139253     1.6627464349
