10

  C         1.5310894846   -0.4600125744    0.0381399685
  H         1.5858168917   -1.0421633657    0.9612220286
  H         1.6018995031   -1.1566078629   -0.8028051289
  H         2.4044270400    0.1973269930   -0.0067941800
  Si       -0.0619160564    0.5288013577   -0.0289353657
  H        -0.0196530303    1.3886708614   -1.2530219225
  H        -0.1873815806    1.4408382927    1.1392713480
  N        -1.4112951863   -0.5685403348    0.0676061048
  H        -2.3245340424   -0.1923743710    0.2955685927
  H        -1.5010944184   -1.2982955986   -0.6304778248
