10

  C         1.5620891409   -0.4363983591   -0.0658092689
  H         1.6501733928   -1.1888401113    0.7237767087
  H         1.6421097310   -0.9508175312   -1.0267844782
  H         2.4130558415    0.2450441690    0.0321584908
  Si       -0.0629565417    0.4955088698    0.0512122641
  H        -0.1848464647    1.4635476354   -1.0722084297
  H        -0.0573778551    1.2675292244    1.3309530981
  N        -1.4249331287   -0.5685108853   -0.1168553863
  H        -2.2048416935   -0.2940952591   -0.6988102635
  H        -1.7151138177   -1.1953243549    0.6221408857
