10

  C         1.4903241360   -0.4164924763   -0.1933847138
  H         1.6252965978   -1.2389705227    0.5141909015
  H         1.4656556009   -0.8369251829   -1.2027757896
  H         2.3698951297    0.2299806475   -0.1264403903
  Si       -0.0776625859    0.5492207807    0.1764695419
  H        -0.1827270874    1.6835476608   -0.7908711806
  H        -0.0010457265    1.1680413614    1.5294134698
  N        -1.4045457867   -0.5624969740    0.0912557494
  H        -1.2948139445   -1.4613552859   -0.3572814510
  H        -2.3730177284   -0.2769066112    0.1391974834
