23

  C        -2.0828592327    0.0142413977    1.8233561747
  H        -1.7255001861    0.8791340272    2.3883115420
  H        -3.1773417324    0.0082925494    1.8570644116
  H        -1.7169832116   -0.8800702532    2.3343532551
  Si       -1.4610605698    0.0715576194    0.0529865053
  C        -2.0465815952   -1.4413397451   -0.9140842791
  H        -1.6729799520   -1.4303056736   -1.9431532678
  H        -3.1399310349   -1.4805610879   -0.9603468724
  H        -1.6980292895   -2.3657850697   -0.4436153045
  C        -2.0562717852    1.6389309281   -0.8165490771
  H        -1.6840790683    1.6954565780   -1.8446233369
  H        -1.7132007622    2.5340568185   -0.2888314849
  H        -3.1499062649    1.6742185758   -0.8593273799
  C         0.4384149728    0.0766221363    0.0754121707
  N         1.0225260145    0.0236569875    1.3042071350
  C         2.3660027628    0.0230695498    1.3649577968
  C         3.1954679471    0.0732816609    0.2435696732
  H         4.2759210940    0.0697677646    0.3609573568
  H         2.7930251325   -0.0199979387    2.3661741393
  C         1.2124480219    0.1287093748   -1.0967486220
  H         0.7243232968    0.1706037927   -2.0690918520
  C         2.6043017509    0.1272706031   -1.0177018532
  H         3.2144798117    0.1673399607   -1.9173075884
