23

  C        -2.0932475639   -0.2515299014    1.7596251058
  H        -1.6680207077    0.4712190038    2.4601413870
  H        -3.1849513505   -0.1820754323    1.8067341892
  H        -1.8035684508   -1.2506265232    2.0990970822
  Si       -1.4599978980    0.0745667965    0.0203972803
  C        -2.0787774579   -1.2662248116   -1.1567808955
  H        -1.7484848431   -1.1000286567   -2.1872208635
  H        -3.1734064384   -1.2935739800   -1.1674633179
  H        -1.7259033516   -2.2547310253   -0.8469003528
  C        -2.0111166479    1.7764528409   -0.5779939611
  H        -1.6407177095    1.9845518046   -1.5867169535
  H        -1.6292749610    2.5575665723    0.0864353169
  H        -3.1030870498    1.8556670362   -0.5984411333
  C         0.4366865043    0.0396035921    0.0636457528
  N         0.9839772838    0.5213939979    1.2149652727
  C         2.3236016763    0.5895391212    1.2976964990
  C         3.1858429907    0.2014141074    0.2701913171
  H         4.2620133088    0.2803780406    0.3997893009
  H         2.7205382102    0.9758308603    2.2357075582
  C         1.2435381613   -0.3590582234   -1.0145078885
  H         0.7841558026   -0.7378485316   -1.9251476810
  C         2.6327806269   -0.2824463025   -0.9137483831
  H         3.2696059857   -0.5918898297   -1.7395353892
