23

  C        -2.0660756116    0.2705872112    1.8219311602
  H        -1.7808528447    1.2478776489    2.2229854053
  H        -3.1559014253    0.1852776558    1.8823918847
  H        -1.6207393289   -0.4928870493    2.4643746462
  Si       -1.4594049484    0.0692629918    0.0553378409
  C        -2.0068260755   -1.5850425751   -0.6681156898
  H        -1.6441094258   -1.7050073589   -1.6938491527
  H        -3.0985068399   -1.6689463017   -0.6865966416
  H        -1.6149095198   -2.4172324730   -0.0754302065
  C        -2.1074308498    1.4690432818   -1.0349179349
  H        -1.7888760114    1.3582756457   -2.0764364002
  H        -1.7614852471    2.4449035642   -0.6803170492
  H        -3.2023617929    1.4844340125   -1.0310330841
  C         0.4372696443    0.1158840881    0.0620540794
  N         1.0112110372   -0.4497033696    1.1612062616
  C         2.3525925862   -0.5149740487    1.2109287706
  C         3.1909284522   -0.0426280932    0.1990550640
  H         4.2699853806   -0.1241648149    0.2997774487
  H         2.7711625797   -0.9699427454    2.1078451271
  C         1.2190688061    0.6026927897   -0.9981043482
  H         0.7387458451    1.0479433166   -1.8668300629
  C         2.6104906018    0.5278341325   -0.9320482867
  H         3.2282111080    0.9046630472   -1.7442395895
