23

  C        -2.0377758922    0.4623572545    1.7626827658
  H        -1.7424032388    1.4779843498    2.0436677825
  H        -3.1266896847    0.3914583413    1.8523571702
  H        -1.5897139343   -0.2282634738    2.4826464738
  Si       -1.4603084301    0.0415588188    0.0207409789
  C        -2.0129913604   -1.6943699112   -0.4548665751
  H        -1.7032567458   -1.9436901250   -1.4744764474
  H        -3.1014911064   -1.7983504467   -0.3987670874
  H        -1.5642101067   -2.4281548214    0.2206063945
  C        -2.1250414764    1.3048458615   -1.2150184392
  H        -1.7933672018    1.0874711290   -2.2353172394
  H        -1.8056772402    2.3218575785   -0.9660916902
  H        -3.2199884792    1.2976907907   -1.2187677166
  C         0.4345155169    0.0795717919    0.0050679728
  N         0.9969086087   -0.8047895413    0.8771441214
  C         2.3372664333   -0.8596130449    0.9453383672
  C         3.1857622363   -0.0622257140    0.1736267834
  H         4.2639639044   -0.1537815863    0.2748590933
  H         2.7469535500   -1.5785287202    1.6538228521
  C         1.2256058243    0.9116142866   -0.8016268328
  H         0.7528579747    1.6087462124   -1.4897763080
  C         2.6172176875    0.8432028274   -0.7195782463
  H         3.2440492812    1.4815586986   -1.3383049310
