23

  C        -2.0237164351    0.6496667691    1.6665712480
  H        -1.6887512426    1.6782622333    1.8336516828
  H        -3.1154083149    0.6345868893    1.7513915464
  H        -1.6149462269    0.0301704410    2.4706767366
  Si       -1.4584027212    0.0051851047   -0.0146241013
  C        -2.0301839130   -1.7694348431   -0.2484448588
  H        -1.7424759364   -2.1524835082   -1.2322328432
  H        -3.1181305091   -1.8529327308   -0.1582195357
  H        -1.5679611439   -2.4122450742    0.5045637065
  C        -2.1237052284    1.1227707186   -1.3832138311
  H        -1.7692378217    0.8029475926   -2.3679631588
  H        -1.8244208437    2.1661882225   -1.2413115864
  H        -3.2182823149    1.0989004861   -1.4010656799
  C         0.4385710252    0.0323575864   -0.0458657431
  N         1.0265457648   -1.0706096798    0.4971538943
  C         2.3678471492   -1.0979002637    0.5755955191
  C         3.1925001025   -0.0592239797    0.1386227308
  H         4.2723030997   -0.1427004018    0.2292577328
  H         2.7979685247   -1.9987300047    1.0116648766
  C         1.2059440757    1.1187636848   -0.4964728543
  H         0.7144411011    1.9902055389   -0.9239420883
  C         2.5975049329    1.0758560967   -0.4084141176
  H         3.2041829965    1.9085496780   -0.7574100332
