8

Si     -1.16962     0.00000     0.00000
H      -1.68789    -0.69688     1.20703
H      -1.68789    -0.69688    -1.20703
H      -1.68789     1.39376    -0.00000
Si      1.16962    -0.00000    -0.00000
H       1.68789    -1.39376     0.00000
H       1.68789     0.69688     1.20703
H       1.68789     0.69688    -1.20703
