8

Si      0.0000009839    -0.0000001112    -1.1696300000
H       1.3462735919    -0.3607340073    -1.6878893288
H      -0.3607359704     1.3462781200    -1.6878897543
H      -0.9855474131    -0.9855402566    -1.6878909168
Si     -0.0000003957    -0.0000009077     1.1696300000
H      -0.9855410232     0.9855476185     1.6878897543
H       1.3462773534     0.3607361758     1.6878909168
H      -0.3607347739    -1.3462733865     1.6878893288
