8

Si     -1.1696300000     0.0000007965     0.0000000000
H      -1.6878895254     0.6968811496    -1.2070399999
H      -1.6878895254     0.6968811493     1.2070400001
H      -1.6878909492    -1.3937688505    -0.0000000001
Si      1.1696300000    -0.0000007965    -0.0000000000
H       1.6878895254    -0.6968811496     1.2070399999
H       1.6878909492     1.3937688505     0.0000000001
H       1.6878895254    -0.6968811493    -1.2070400001
