8

Si      1.1696300000    -0.0000000000     0.0000005882
H       1.6878900000     0.0000000003    -1.3937694118
H       1.6878900000    -1.2070400002     0.6968805879
H       1.6878900000     1.2070399998     0.6968805885
Si     -1.1696300000    -0.0000000000     0.0000005882
H      -1.6878900000     1.2070399998     0.6968805885
H      -1.6878900000    -1.2070400002     0.6968805879
H      -1.6878900000     0.0000000003    -1.3937694118
