27

  C        -1.8546288469   -1.9491124486   -0.5415834662
  H        -1.8405765278   -2.5277887698    0.3879285105
  H        -2.7483193693   -2.2465862837   -1.1002798332
  H        -0.9816028133   -2.2482689435   -1.1272436547
  Si       -1.8943641773   -0.0973708089   -0.1672879967
  C        -1.9138679232    0.9168514126   -1.7610943764
  H        -1.9535645941    1.9871981754   -1.5335399232
  H        -2.7976375419    0.6751178163   -2.3608497657
  H        -1.0316545558    0.7465970742   -2.3835870579
  C        -3.4755362714    0.2770888927    0.7969991246
  H        -3.5478204785    1.3397733615    1.0495820032
  H        -3.5169165596   -0.2899944616    1.7324572200
  H        -4.3636804288    0.0153845381    0.2127586415
  C        -0.4571880709    0.4178572363    0.9663817122
  H        -0.5883037144   -0.1402884879    1.9057953939
  H        -0.6392076777    1.4683672142    1.2384851338
  C         0.9843956491    0.2785682368    0.5189018615
  C         1.3659995895   -0.2609727784   -0.7167814063
  C         2.7128998765   -0.3688444521   -1.0752888538
  C         3.7107574303    0.0601070468   -0.2010718877
  H         4.7584211561   -0.0236313493   -0.4797042009
  H         2.9795630126   -0.7912832524   -2.0416375514
  H         0.6121676772   -0.6049908517   -1.4182830713
  C         2.0043956142    0.7036107653    1.3861571266
  H         1.7328330182    1.1256621691    2.3530523081
  C         3.3499107745    0.5993505127    1.0361981885
  H         4.1168689208    0.9380033947    1.7293349234
