27

  C        -1.6249204224   -1.9069062485   -0.3137296804
  H        -1.5472201832   -2.3719436534    0.6743504539
  H        -2.4598162832   -2.3807574261   -0.8401686940
  H        -0.7061305681   -2.1392539349   -0.8597316736
  Si       -1.8859639192   -0.0451681752   -0.1581165048
  C        -2.0971610056    0.7371707935   -1.8673822662
  H        -2.1101553426    1.8301102993   -1.8030092264
  H        -3.0521734378    0.4233054336   -2.3026316174
  H        -1.3117806871    0.4556504763   -2.5739359045
  C        -3.4622527735    0.2961951337    0.8262166592
  H        -3.6279883220    1.3712924648    0.9505651574
  H        -3.4144546814   -0.1496224583    1.8247790494
  H        -4.3410727184   -0.1167632058    0.3205291213
  C        -0.4568141136    0.7353791805    0.8301067459
  H        -0.6235611008    0.4751664435    1.8846554144
  H        -0.5834075270    1.8277331857    0.7798431205
  C         0.9680576829    0.3815519733    0.4654906576
  C         1.3661123643    0.1176219965   -0.8533015880
  C         2.6996525906   -0.1541174952   -1.1670763388
  C         3.6739720943   -0.1397410843   -0.1684046539
  H         4.7122023104   -0.3528687325   -0.4110938063
  H         2.9780778117   -0.3642119151   -2.1974939248
  H         0.6282746673    0.1192908848   -1.6505841612
  C         1.9661725237    0.4138223392    1.4520303909
  H         1.6856908279    0.6322484885    2.4815339173
  C         3.3001581588    0.1415386449    1.1472215130
  H         4.0498452221    0.1636815501    1.9351369417
