27

  C        -1.5391795140   -1.8159947254    0.5971474947
  H        -1.5664530952   -1.9073500132    1.6879882459
  H        -2.3090929339   -2.4796954441    0.1901443549
  H        -0.5660480181   -2.1811830456    0.2559791783
  Si       -1.8242712465   -0.0342021331    0.0494557571
  C        -1.7838841868    0.0680155504   -1.8333522511
  H        -1.9443830227    1.0933993296   -2.1823795566
  H        -2.5674852976   -0.5574847418   -2.2735838939
  H        -0.8220398730   -0.2730939082   -2.2270156257
  C        -3.4933983926    0.5774102746    0.6879718599
  H        -3.6774125520    1.6145251548    0.3899093954
  H        -3.5418852422    0.5319776728    1.7806171890
  H        -4.3142960824   -0.0308250597    0.2944793462
  C        -0.4492628581    1.0662142152    0.7751885278
  H        -0.5139701956    1.0389513546    1.8708245486
  H        -0.6315233840    2.1069575644    0.4763694237
  C         0.9159402865    0.6262211114    0.3238685473
  C         1.4589107505    1.0851055033   -0.8862731325
  C         2.7080826678    0.6460428888   -1.3278120094
  C         3.4393004812   -0.2700550322   -0.5687064890
  H         4.4133637475   -0.6116090548   -0.9102572350
  H         3.1110984158    1.0214520967   -2.2659266397
  H         0.9009738276    1.8076876163   -1.4802602763
  C         1.6640603910   -0.2917575688    1.0766386150
  H         1.2659608937   -0.6535305899    2.0237767620
  C         2.9132250715   -0.7346408135    0.6384313319
  H         3.4770125300   -1.4421332437    1.2425756337
