27

  C        -1.5465960546   -1.8815880446    0.1354442804
  H        -1.5037043729   -2.1614900389    1.1930481660
  H        -2.3350742402   -2.4775947667   -0.3353867793
  H        -0.5928465104   -2.1643272564   -0.3205529023
  Si       -1.8630157358   -0.0344418067   -0.0693002822
  C        -1.9897041326    0.3838614988   -1.9070679531
  H        -2.0299146184    1.4647102164   -2.0770454870
  H        -2.9056592680   -0.0485004517   -2.3242435986
  H        -1.1490850129   -0.0186412329   -2.4783943438
  C        -3.4839618976    0.4505063334    0.7711887422
  H        -3.6769511939    1.5237289652    0.6731373287
  H        -3.4656077880    0.2129892021    1.8395673139
  H        -4.3332855330   -0.0796625321    0.3282279777
  C        -0.4580670821    0.9192076461    0.7945497625
  H        -0.5820904650    0.7870281121    1.8774579190
  H        -0.5967998990    1.9926268902    0.6016622531
  C         0.9335361723    0.5008130501    0.3928710462
  C         1.3860698970    0.6472620195   -0.9286259697
  C         2.6850339894    0.2878821591   -1.2905326491
  C         3.5712657580   -0.2070346341   -0.3314257086
  H         4.5831523985   -0.4884308170   -0.6126387789
  H         3.0098305222    0.4089520147   -2.3217084340
  H         0.7175685919    1.0586493153   -1.6813911997
  C         1.8467539952    0.0321888762    1.3488340183
  H         1.5272220008   -0.0669168075    2.3852033140
  C         3.1451853226   -0.3362347830    0.9912762226
  H         3.8300883247   -0.7051381686    1.7516448440
