24

  C         3.3885725748   -0.9759647568    0.1680218966
  H         3.4786829920   -2.0516022508    0.3404991155
  H         3.8909325210   -0.7237467925   -0.7691213061
  H         3.8857343016   -0.4639497244    0.9935078613
  C         1.9214647569   -0.5991948187    0.1866352180
  O         1.2685976999   -0.6175718728    1.2376466501
  N         1.3809585880   -0.2761728781   -1.0149112726
  H         1.9958330579   -0.2796532922   -1.8187878444
  C        -0.0113809810    0.0920460123   -1.2340971227
  H        -0.4343325272   -0.5802946333   -1.9933178001
  H        -0.0459087138    1.1019865033   -1.6664586531
  Si       -1.2778679084    0.0986389110    0.2130040049
  C        -2.8433068506    0.6008970146   -0.7416374438
  H        -3.1009418572   -0.1258597746   -1.5194478771
  H        -3.7004283966    0.6675125640   -0.0632957224
  H        -2.7346718854    1.5786248159   -1.2232114698
  C        -1.6180993342   -1.6040201374    0.9422036220
  H        -1.7364731452   -2.3489167456    0.1476982304
  H        -2.5515328268   -1.5893674027    1.5150237953
  H        -0.8078102424   -1.9246120464    1.5974675464
  C        -0.9798282823    1.4457354142    1.4945350448
  H        -0.1557044478    1.1865333765    2.1595118971
  H        -1.8830884350    1.6022634920    2.0939056426
  H        -0.7448210337    2.3981985069    1.0069940855
