24

  C         3.2880509459   -1.2156155936    0.1365943831
  H         3.1854933224   -2.2154536783    0.5661344080
  H         3.7028254250   -1.3039769902   -0.8705966405
  H         3.9809997279   -0.6533070792    0.7648538358
  C         1.9385645149   -0.5285317962    0.1765578194
  O         1.4227457366   -0.1851785281    1.2476493620
  N         1.3242574352   -0.3586805709   -1.0217278817
  H         1.8511178944   -0.5849854072   -1.8554354657
  C         0.0386856953    0.3102012106   -1.1917802724
  H        -0.4313566814   -0.1261953037   -2.0805328440
  H         0.1947839069    1.3768133536   -1.4145906793
  Si       -1.2725827761    0.1817850476    0.2091338873
  C        -2.8772920295    0.5050857926   -0.7525710336
  H        -3.0692835015   -0.2745421010   -1.4973358151
  H        -3.7381253807    0.5321784129   -0.0764314173
  H        -2.8482729383    1.4659076234   -1.2781533380
  C        -1.3733110870   -1.5555954868    0.9294292444
  H        -1.3414874699   -2.3106508094    0.1366832114
  H        -2.3146455252   -1.6899804591    1.4724915878
  H        -0.5458073592   -1.7421200273    1.6157883467
  C        -1.1447156091    1.5343578151    1.5112466063
  H        -0.2558049760    1.4055976756    2.1287897950
  H        -2.0301481656    1.5220730338    2.1558850247
  H        -1.1001114803    2.5223233504    1.0402859739
