24

  C         3.1731540806   -1.3988989685    0.0985760999
  H         2.9542956833   -2.2699164227    0.7219525014
  H         3.4326993903   -1.7415954853   -0.9062703528
  H         4.0278494282   -0.8810686596    0.5370768855
  C         1.9795515710   -0.4673122557    0.1257150152
  O         1.6828768830    0.1850160318    1.1350640748
  N         1.2163036487   -0.4355440495   -0.9979054381
  H         1.5843702957   -0.8582978597   -1.8398810542
  C         0.0975413302    0.5006267797   -1.1156155850
  H        -0.3261041441    0.3544934036   -2.1145718776
  H         0.4695415134    1.5336492196   -1.0696967707
  Si       -1.2985084779    0.2452086612    0.1825645961
  C        -2.9220799946    0.3823361125   -0.7830094960
  H        -3.0054772689   -0.4020242501   -1.5426835905
  H        -3.7861530497    0.2902329754   -0.1170423061
  H        -3.0046449534    1.3483701050   -1.2926518037
  C        -1.1760362375   -1.4755361643    0.9377377658
  H        -1.0929219027   -2.2472911065    0.1662803132
  H        -2.0667478336   -1.6960106258    1.5351685671
  H        -0.3026258263   -1.5459212153    1.5900904204
  C        -1.2676522683    1.5893913332    1.4980866598
  H        -0.3171901835    1.5652769131    2.0345713358
  H        -2.0823173759    1.4537798368    2.2169677316
  H        -1.3851446838    2.5825451755    1.0518444064
