24

  C         3.4031759560   -0.5052501507    0.2223869143
  H         3.9253832128   -1.4211098253   -0.0676737341
  H         3.7657657816    0.3212533094   -0.3938814724
  H         3.6385215082   -0.3054396732    1.2690128860
  C         1.9097606285   -0.7268399910    0.1024025157
  O         1.2853761635   -1.4271399843    0.9096077963
  N         1.2970688790   -0.1138170315   -0.9437723283
  H         1.8781769478    0.3226107278   -1.6476997061
  C        -0.1057336924   -0.3773683660   -1.2634742609
  H        -0.2248636924   -1.4155977281   -1.6051947449
  H        -0.3572233069    0.2696062088   -2.1102209486
  Si       -1.3536809783   -0.0110682000    0.1537904812
  C        -2.8350846655    0.8033969072   -0.7017988554
  H        -3.2571461580    0.1545701298   -1.4769101832
  H        -3.6349821632    1.0176266605    0.0144026744
  H        -2.5553499437    1.7495242650   -1.1770789743
  C        -1.9520450471   -1.5861817907    0.9900686280
  H        -2.4146806783   -2.2652423471    0.2660154153
  H        -2.7036637996   -1.3597465961    1.7535134934
  H        -1.1157526224   -2.1050553002    1.4614755599
  C        -0.6136632977    1.2090010277    1.3824060512
  H         0.1659995465    0.7295376917    1.9782102238
  H        -1.3854199710    1.5814496336    2.0640128251
  H        -0.1753589828    2.0727899069    0.8727678420
