24

  C         3.4182772595   -0.7316774358    0.2047833688
  H         3.7323689390   -1.7764058911    0.1331173351
  H         3.8985613769   -0.1608835045   -0.5938262435
  H         3.7502968190   -0.3499424890    1.1715642365
  C         1.9053372266   -0.6683829429    0.1618265509
  O         1.2171929046   -1.0410448706    1.1203285978
  N         1.3671388510   -0.1946495452   -0.9905095651
  H         2.0012514896    0.0194231655   -1.7496556315
  C        -0.0637393681   -0.1389439193   -1.2670200216
  H        -0.3655483820   -1.0154071518   -1.8606824340
  H        -0.2349256279    0.7380341258   -1.9022671293
  Si       -1.3063117607    0.0292022130    0.1910574910
  C        -2.8358325464    0.6928964703   -0.7181975765
  H        -3.1476927693    0.0254688868   -1.5290668738
  H        -3.6845491877    0.7873699435   -0.0328155568
  H        -2.6545381025    1.6813625216   -1.1533985520
  C        -1.8162685675   -1.6081251602    0.9665692427
  H        -2.1198150523   -2.3237893568    0.1948010808
  H        -2.6771279331   -1.4595753227    1.6273381404
  H        -1.0004317487   -2.0456495520    1.5418788067
  C        -0.7771121077    1.3331229361    1.4426652771
  H         0.0067046647    0.9508853609    2.0982731488
  H        -1.6297760044    1.6396274172    2.0576419837
  H        -0.3988807480    2.2285935856    0.9379624224
