9

Si       -0.1103009654    0.5070791216   -0.0000053491
H        -0.2179683062    1.3861436284   -1.1997483297
H        -0.2180502269    1.3861116140    1.1997555784
C         1.5177782946   -0.4046461407    0.0000151791
H         1.6070125946   -1.0411553772    0.8838828342
H         2.3583129467    0.2957251854    0.0000349257
H         1.6070442754   -1.0411336722   -0.8838655252
O        -1.3093350594   -0.6641447045   -0.0000405975
H        -2.2241270602   -0.3437645999    0.0002491102
