9

Si       -0.1071455480    0.5123260844   -0.0423169179
H        -0.2941450157    1.2420878313   -1.3291875148
H        -0.1479159027    1.5296595746    1.0470946076
C         1.5192191899   -0.4095477543   -0.0129480748
H         1.4331037375   -1.2732534779    0.6523718924
H         2.3258027121    0.2204707591    0.3719383273
H         1.8030016801   -0.7744488784   -1.0023801400
O        -1.3032203580   -0.6419186844    0.1794208074
H        -2.2183340021   -0.3251603996    0.1362848390
