9

Si       -0.1034681097    0.5127645368   -0.0821894375
H        -0.3449568722    1.0742559809   -1.4422665798
H        -0.0968556273    1.6630935563    0.8665466802
C         1.5162979320   -0.4281791967   -0.0165161310
H         1.3233257725   -1.4626716624    0.2795730668
H         2.2065406793    0.0063140092    0.7105408068
H         2.0144708533   -0.4439455476   -0.9887716051
O        -1.2985884082   -0.5905763969    0.3283061916
H        -2.2063997267   -0.2508402249    0.3450548341
