9

Si       -0.1056371766    0.5002102944   -0.1104067931
H        -0.4084826565    0.8993692182   -1.5148752930
H        -0.0307329826    1.7540184184    0.6932668008
C         1.5049976260   -0.4466490288   -0.0317553543
H         1.3225755900   -1.5156901517   -0.1659278352
H         2.0138299027   -0.2987883265    0.9236040633
H         2.1865986697   -0.1191900352   -0.8222444282
O        -1.2893160337   -0.5305091493    0.4798356295
H        -2.1834664460   -0.1625561846    0.5487810362
