23

  C        -1.1393412280   -1.1920216559   -0.0535181728
  H        -0.6004937800   -2.1356254961   -0.1144358670
  C        -0.4120571831    0.0135123116   -0.0350873728
  Si        1.4691735845   -0.0165150189   -0.0322436142
  C         2.1688902917   -0.2553619085    1.6974693670
  H         3.2623344286   -0.3208623764    1.6818782589
  H         1.8986215534    0.5815991034    2.3485749916
  H         1.7818170832   -1.1733917902    2.1479715314
  N         1.9075979046   -1.4418849929   -0.9428807105
  H         2.8694926613   -1.7634154075   -0.9036544122
  H         1.5477286612   -1.5379026834   -1.8870643468
  C         2.1087729501    1.6191888904   -0.7240996999
  H         3.2016712754    1.6059386703   -0.7935587660
  H         1.7129536723    1.8155669671   -1.7252546541
  H         1.8355131399    2.4661130444   -0.0857906702
  C        -1.1406668232    1.2154320736    0.0317599508
  H        -0.6154595810    2.1693773195    0.0401850868
  C        -2.5366479950    1.2176129932    0.0737523791
  H        -3.0782033154    2.1599596530    0.1226416863
  C        -3.2366920018    0.0094996606    0.0527383642
  H        -4.3240491226    0.0082002065    0.0838559537
  C        -2.5350988029   -1.1963892827   -0.0146783440
  H        -3.0764974389   -2.1399904891   -0.0337920497
