23

  C        -1.1711411630   -0.4952148801    1.1037350274
  H        -0.6601767849   -0.9053452888    1.9734844257
  C        -0.4247687554    0.0657747937    0.0511734802
  Si        1.4566650981    0.0752872261    0.0500980824
  C         2.1706712338   -1.3563605664   -0.9393773248
  H         3.2645525790   -1.3103338027   -0.9777969889
  H         1.8971408408   -2.3168598345   -0.4920548308
  H         1.7960750647   -1.3420550489   -1.9665146599
  N         1.9053262947    1.5353971085   -0.7981698678
  H         2.8730887472    1.6547781604   -1.0798068827
  H         1.5282581482    2.4175436958   -0.4668769941
  C         2.0721904131   -0.0536340945    1.8299335677
  H         3.1647225500    0.0148149466    1.8638768646
  H         1.6682336755    0.7479810382    2.4558451193
  H         1.7935647739   -1.0080205936    2.2891968995
  C        -1.1339425197    0.5922546264   -1.0455401168
  H        -0.5815723961    1.0433634518   -1.8677098649
  C        -2.5292839441    0.5641176212   -1.0866190502
  H        -3.0565153566    0.9798244029   -1.9428125230
  C        -3.2487506182    0.0000066811   -0.0305626078
  H        -4.3358815501   -0.0233555505   -0.0608465304
  C        -2.5669827876   -0.5283558716    1.0675643909
  H        -3.1225979793   -0.9652200348    1.8946879101
