23

  C        -1.1311383143   -1.1654063907    0.3193122899
  H        -0.5873201233   -2.0807362080    0.5483241377
  C        -0.4257256163    0.0057197298   -0.0138274941
  Si        1.4544545367    0.0760739590    0.0002128839
  C         2.1333003620   -1.6531418020   -0.3347619416
  H         3.2265680995   -1.6321797439   -0.3958213970
  H         1.8670761933   -2.3564620890    0.4613592604
  H         1.7537517151   -2.0588373344   -1.2775936901
  N         1.8795003589    1.2931525793   -1.1794237341
  H         2.8334399206    1.6395139996   -1.1927177805
  H         1.5375363254    1.1821262025   -2.1286298594
  C         2.1256631057    0.6799173651    1.6505584394
  H         3.2179233646    0.7624882196    1.6328384672
  H         1.7163580948    1.6631055877    1.8981969367
  H         1.8609432235   -0.0102395671    2.4574855750
  C        -1.1764936102    1.1591834142   -0.3108990810
  H        -0.6555703609    2.0763207621   -0.5789966478
  C        -2.5724949344    1.1410743050   -0.2853547181
  H        -3.1322260112    2.0434521198   -0.5225888057
  C        -3.2507936120   -0.0332288128    0.0489588689
  H        -4.3382638344   -0.0489895975    0.0707810078
  C        -2.5271721378   -1.1890825153    0.3498025802
  H        -3.0504411815   -2.1074359967    0.6076922283
